output_voltage1.csv
node_name,voltA_real,voltA_imag,voltB_real,voltB_imag,voltC_real,voltC_imag
R5-12-47-1_cap_1,7815.884042,-184.345959,-4014.232894,-6669.071123,-3664.790746,6787.972841
R5-12-47-1_cap_2,7716.982341,-256.973062,-4029.221461,-6567.050716,-3572.869013,6730.887845
R5-12-47-1_cap_3,7748.418489,-237.630625,-4027.114063,-6598.704194,-3598.843967,6750.183758
R5-12-47-1_node_1,7688.777736,-259.625588,-4018.760366,-6547.096942,-3561.446605,6708.431907
R5-12-47-1_node_2,7691.021178,-259.381852,-4019.660821,-6549.156122,-3562.780684,6710.291254
R5-12-47-1_node_3,7690.523858,-259.404244,-4019.431332,-6548.713701,-3562.510208,6709.861873
R5-12-47-1_node_4,7690.524960,-259.410310,-4019.437159,-6548.711658,-3562.505429,6709.865902
R5-12-47-1_node_5,7692.774742,-259.299317,-4020.466924,-6550.717640,-3563.737343,6711.803609
R5-12-47-1_node_6,0.000000,0.000000,0.000000,0.000000,-3725.646257,6803.731156
R5-12-47-1_node_7,0.000000,0.000000,0.000000,0.000000,-3904.845962,6868.111379
R5-12-47-1_node_8,0.000000,0.000000,0.000000,0.000000,-3904.846026,6868.111319
R5-12-47-1_node_9,0.000000,0.000000,-4002.611001,-6740.680775,0.000000,0.000000
R5-12-47-1_node_10,0.000000,0.000000,-4001.016013,-6727.221092,-3741.376526,6814.461046
R5-12-47-1_node_11,0.000000,0.000000,0.000000,0.000000,-3724.747074,6802.815999
R5-12-47-1_node_12,7709.496953,-257.500114,-4026.029481,-6561.902842,-3571.007898,6725.098979
R5-12-47-1_node_13,7717.139291,-256.878067,-4029.175221,-6567.320523,-3573.088218,6731.069834
R5-12-47-1_node_14,7955.076964,-17.260609,-3986.914541,-6889.256052,-3963.096469,6884.980564
R5-12-47-1_node_15,7931.818897,-46.310458,-3990.847346,-6846.837562,-3904.848159,6868.113602
R5-12-47-1_node_16,0.000000,0.000000,-3989.170550,-6864.157405,0.000000,0.000000
R5-12-47-1_node_17,0.000000,0.000000,-3989.170009,-6864.157557,0.000000,0.000000
R5-12-47-1_node_18,7941.524098,-34.187786,-3989.173681,-6864.169614,-3928.732417,6875.121679
R5-12-47-1_node_19,0.000000,0.000000,0.000000,0.000000,-3904.843509,6868.108996
R5-12-47-1_node_20,0.000000,0.000000,0.000000,0.000000,-3904.843684,6868.108827
R5-12-47-1_node_21,0.000000,0.000000,0.000000,0.000000,-3833.487494,6845.497027
R5-12-47-1_node_22,7951.230917,-22.034274,-3987.529933,-6882.154131,-3953.381503,6882.165441
R5-12-47-1_node_23,7951.230917,-22.034274,-3987.529933,-6882.154131,-3953.381503,6882.165441
R5-12-47-1_node_24,7955.069949,-17.227580,-3986.879834,-6889.266979,-3963.130176,6884.951238
R5-12-47-1_node_25,7956.711686,-15.184527,-3986.654804,-6892.319640,-3967.353217,6886.192714
R5-12-47-1_node_26,7956.718702,-15.217556,-3986.689512,-6892.308713,-3967.319510,6886.222040
R5-12-47-1_node_27,7955.076964,-17.260609,-3986.914541,-6889.256052,-3963.096469,6884.980564
R5-12-47-1_node_28,7789.743554,-209.757956,-4022.034681,-6636.515060,-3631.497804,6774.437345
R5-12-47-1_node_29,7789.824001,-210.095625,-4022.285395,-6637.609462,-3631.461544,6774.120038
R5-12-47-1_node_30,0.000000,0.000000,-4024.267569,-6631.646647,0.000000,0.000000
R5-12-47-1_node_31,7784.300622,-214.979953,-4024.267798,-6631.646681,-3626.405832,6771.678721
R5-12-47-1_node_32,7782.781858,-215.884618,-4024.397659,-6630.182668,-3625.303012,6770.831697
R5-12-47-1_node_33,7784.299352,-214.963153,-4024.243749,-6631.660019,-3626.417139,6771.665501
R5-12-47-1_node_34,7798.545429,-201.796527,-4019.388969,-6647.621412,-3641.287863,6778.396416
R5-12-47-1_node_35,7799.969638,-200.475787,-4018.894045,-6649.334250,-3642.892600,6779.065898
R5-12-47-1_node_36,7804.537371,-196.161924,-4017.386565,-6654.876459,-3648.336056,6781.334630
R5-12-47-1_node_37,7798.543623,-201.792033,-4019.393441,-6647.608953,-3641.289669,6778.400910
R5-12-47-1_node_38,0.000000,0.000000,-4019.392981,-6647.606760,0.000000,0.000000
R5-12-47-1_node_39,7823.796111,-175.726282,-4012.254923,-6679.290654,-3677.495358,6792.977401
R5-12-47-1_node_40,0.000000,0.000000,-4020.682941,-6643.066543,0.000000,0.000000
R5-12-47-1_node_41,7794.648509,-205.500397,-4020.687048,-6643.084928,-3636.840896,6776.486577
R5-12-47-1_node_42,7812.415876,-188.152361,-4015.083603,-6664.567783,-3659.131022,6785.751429
R5-12-47-1_node_43,0.000000,0.000000,0.000000,0.000000,-3658.621204,6785.224893
R5-12-47-1_node_44,7812.394126,-188.147992,-4015.105352,-6664.563414,-3659.186900,6785.765392
R5-12-47-1_node_45,7789.839150,-210.092834,-4022.272481,-6637.632928,-3631.455439,6774.115123
R5-12-47-1_node_46,7790.397484,-209.610066,-4022.061340,-6638.253747,-3631.947935,6774.342968
R5-12-47-1_node_47,7790.409001,-209.612582,-4022.049823,-6638.256262,-3631.916737,6774.334916
R5-12-47-1_node_48,7784.303106,-214.982560,-4024.261281,-6631.654056,-3626.403348,6771.676114
R5-12-47-1_node_49,7823.793688,-175.728491,-4012.255615,-6679.287447,-3677.492187,6792.976347
R5-12-47-1_node_50,7716.690626,-257.149290,-4029.280068,-6566.604372,-3572.497641,6730.606967
R5-12-47-1_node_51,7716.685684,-257.151593,-4029.280448,-6566.597187,-3572.491975,6730.601906
R5-12-47-1_node_52,7717.220870,-256.828963,-4029.173539,-6567.415682,-3573.172677,6731.117514
R5-12-47-1_node_53,7700.498431,-258.388386,-4023.149162,-6556.189294,-3567.110202,6718.025252
R5-12-47-1_node_54,7700.480544,-258.388044,-4023.139916,-6556.173941,-3567.101481,6718.009247
R5-12-47-1_node_55,7700.462891,-258.389045,-4023.131957,-6556.158127,-3567.091696,6717.994126
R5-12-47-1_node_56,7700.480778,-258.389387,-4023.141202,-6556.173480,-3567.100418,6718.010131
R5-12-47-1_node_57,7717.139215,-256.877656,-4029.174825,-6567.320660,-3573.088542,6731.069559
R5-12-47-1_node_58,7841.453316,-149.681340,0.000000,0.000000,0.000000,0.000000
R5-12-47-1_node_59,7720.722918,-254.558204,-4028.829775,-6571.181992,-3576.312903,6733.410735
R5-12-47-1_node_60,7743.115301,-240.820815,-4027.431964,-6593.300212,-3594.417431,6747.022381
R5-12-47-1_node_61,7743.685536,-240.477783,-4027.397781,-6593.881286,-3594.893403,6747.362314
R5-12-47-1_node_62,7743.110855,-240.823455,-4027.432022,-6593.295042,-3594.412862,6747.019758
R5-12-47-1_node_63,7727.925371,-250.033058,-4028.378345,-6578.210360,-3582.056886,6737.887581
R5-12-47-1_node_64,7727.809703,-250.020736,-4028.348491,-6578.145556,-3581.972257,6737.805635
R5-12-47-1_node_65,7720.719503,-254.560260,-4028.829845,-6571.178008,-3576.309367,6733.408738
R5-12-47-1_node_66,7720.719442,-254.559928,-4028.829525,-6571.178119,-3576.309628,6733.408517
R5-12-47-1_node_67,7720.699957,-254.563836,-4028.823155,-6571.159304,-3576.296385,6733.393193
R5-12-47-1_node_68,7732.544710,-247.170455,-4028.094098,-6582.664568,-3585.779837,6740.708622
R5-12-47-1_node_69,7743.112722,-240.806284,-4027.418740,-6593.304897,-3594.428402,6747.014104
R5-12-47-1_node_70,7732.538658,-247.176371,-4028.095584,-6582.655385,-3585.769598,6740.705646
R5-12-47-1_node_71,0.000000,0.000000,0.000000,0.000000,-3585.736937,6740.668897
R5-12-47-1_node_72,7732.538498,-247.175479,-4028.094691,-6582.655697,-3585.770380,6740.704978
R5-12-47-1_node_73,7717.875162,-256.337830,-4029.008813,-6568.432790,-3574.093206,6731.634563
R5-12-47-1_node_74,7718.081261,-256.310095,-4029.075024,-6568.582212,-3574.169974,6731.789919
R5-12-47-1_node_75,7710.347458,-257.244172,-4026.483923,-6562.959042,-3571.216453,6725.879485
R5-12-47-1_node_76,7717.873014,-256.327971,-4029.000273,-6568.435730,-3574.100135,6731.629228
R5-12-47-1_node_77,7703.775433,-257.977467,-4024.235908,-6558.465863,-3568.509527,6720.619493
R5-12-47-1_node_78,0.000000,0.000000,-4000.762269,-6733.923877,0.000000,0.000000
R5-12-47-1_node_79,0.000000,0.000000,0.000000,0.000000,-3772.655350,6824.525423
R5-12-47-1_node_80,7870.030199,-111.449546,0.000000,0.000000,0.000000,0.000000
R5-12-47-1_node_81,7804.621650,-196.567499,-4017.120252,-6655.048024,-3647.454586,6780.970217
R5-12-47-1_node_82,7782.774448,-215.846411,-4024.363942,-6630.194148,-3625.330131,6770.810891
R5-12-47-1_node_83,7782.318563,-216.135778,-4024.407179,-6629.780506,-3624.991520,6770.547962
R5-12-47-1_node_84,7778.005190,-218.873636,-4024.816269,-6625.866811,-3621.787732,6768.060252
R5-12-47-1_node_85,7777.989325,-218.879625,0.000000,0.000000,-3621.781146,6768.045934
R5-12-47-1_node_86,0.000000,0.000000,0.000000,0.000000,-3621.618974,6767.895742
R5-12-47-1_node_87,7777.993703,-218.877209,0.000000,0.000000,0.000000,0.000000
R5-12-47-1_node_88,7777.993520,-218.876565,0.000000,0.000000,0.000000,0.000000
R5-12-47-1_node_89,7772.806261,-221.951937,-4025.296949,-6620.525068,-3617.762886,6765.122158
R5-12-47-1_node_90,7768.295273,-224.798962,-4025.645235,-6616.289042,-3614.195909,6762.397924
R5-12-47-1_node_91,7762.194446,-228.783682,-4026.109869,-6611.046314,-3609.525245,6758.629856
R5-12-47-1_node_92,7755.518861,-233.137579,-4026.603542,-6605.247443,-3604.344853,6754.481073
R5-12-47-1_node_93,0.000000,0.000000,0.000000,0.000000,-3614.191775,6762.393583
R5-12-47-1_node_94,0.000000,0.000000,0.000000,0.000000,-3614.020251,6762.233126
R5-12-47-1_node_95,0.000000,0.000000,0.000000,0.000000,-3614.189636,6762.391235
R5-12-47-1_node_96,0.000000,0.000000,-4025.642435,-6616.277917,0.000000,0.000000
R5-12-47-1_node_97,0.000000,0.000000,-4025.641615,-6616.278145,0.000000,0.000000
R5-12-47-1_node_98,0.000000,0.000000,-4025.227760,-6620.243496,0.000000,0.000000
R5-12-47-1_node_99,7762.187229,-228.785944,0.000000,0.000000,0.000000,0.000000
R5-12-47-1_node_100,7762.187190,-228.785809,0.000000,0.000000,0.000000,0.000000
R5-12-47-1_node_101,0.000000,0.000000,0.000000,0.000000,-3614.191541,6762.393820
R5-12-47-1_node_102,0.000000,0.000000,-4025.293757,-6620.511217,0.000000,0.000000
R5-12-47-1_node_103,7777.989559,-218.880457,0.000000,0.000000,-3621.780607,6768.046487
R5-12-47-1_node_104,7900.603040,-84.091354,-3996.992833,-6794.327965,-3834.338821,6846.638670
R5-12-47-1_node_105,7909.409649,-73.112454,-3995.409403,-6808.193881,-3853.954481,6852.980449
R5-12-47-1_node_106,0.000000,0.000000,-3995.392186,-6808.127783,0.000000,0.000000
R5-12-47-1_node_107,0.000000,0.000000,-3994.547131,-6804.912288,0.000000,0.000000
R5-12-47-1_node_108,0.000000,0.000000,-3996.990467,-6794.318984,0.000000,0.000000
R5-12-47-1_node_109,0.000000,0.000000,-3997.521285,-6790.490735,0.000000,0.000000
R5-12-47-1_node_110,0.000000,0.000000,0.000000,0.000000,-3834.253368,6846.524339
R5-12-47-1_node_111,7898.041490,-87.166805,-3997.522938,-6790.497004,-3829.121449,6844.904532
R5-12-47-1_node_112,0.000000,0.000000,-4002.351742,-6739.723448,0.000000,0.000000
R5-12-47-1_node_113,7856.235419,-132.213069,0.000000,0.000000,0.000000,0.000000
R5-12-47-1_node_114,0.000000,0.000000,-3999.775960,-6720.887980,0.000000,0.000000
R5-12-47-1_node_115,0.000000,0.000000,0.000000,0.000000,-3731.028098,6809.181881
R5-12-47-1_node_116,0.000000,0.000000,0.000000,0.000000,-3713.187581,6798.892096
R5-12-47-1_node_117,0.000000,0.000000,0.000000,0.000000,-3713.419415,6799.183326
R5-12-47-1_node_118,0.000000,0.000000,0.000000,0.000000,-3712.254230,6797.476244
R5-12-47-1_node_119,7877.011984,-109.574524,0.000000,0.000000,-3793.058531,6831.867213
R5-12-47-1_node_120,7862.662005,-130.408636,0.000000,0.000000,0.000000,0.000000
R5-12-47-1_node_121,0.000000,0.000000,-4004.200296,-6731.189450,-3745.490308,6817.625468
R5-12-47-1_node_122,7844.843754,-148.803451,-4006.932010,-6718.571170,0.000000,0.000000
R5-12-47-1_node_123,7839.889595,-153.995372,0.000000,0.000000,0.000000,0.000000
R5-12-47-1_node_124,0.000000,0.000000,0.000000,0.000000,-3696.613318,6796.509286
R5-12-47-1_node_125,0.000000,0.000000,0.000000,0.000000,-3647.403852,6781.007808
R5-12-47-1_node_126,0.000000,0.000000,0.000000,0.000000,-3646.181658,6779.757167
R5-12-47-1_node_127,7804.740276,-196.432389,-4017.077029,-6655.002783,-3647.420157,6781.024232
R5-12-47-1_node_128,0.000000,0.000000,0.000000,0.000000,-3713.187581,6798.892096
R5-12-47-1_node_129,0.000000,0.000000,0.000000,0.000000,-3712.472922,6797.994337
R5-12-47-1_node_130,7849.900876,-147.914121,-4005.592664,-6718.015143,-3723.205679,6809.005966
R5-12-47-1_node_131,7849.895841,-147.889338,-4005.568785,-6718.022884,-3723.227614,6808.987878
R5-12-47-1_node_132,7843.120110,-155.343014,-4007.193515,-6707.524053,-3710.414567,6804.661563
R5-12-47-1_node_133,7839.199368,-159.580133,-4008.127985,-6700.491355,-3702.143235,6802.144224
R5-12-47-1_node_134,0.000000,0.000000,0.000000,0.000000,-3701.981154,6801.978596
R5-12-47-1_node_135,7845.517314,-152.542430,0.000000,0.000000,0.000000,0.000000
R5-12-47-1_node_136,7845.686196,-152.499094,-4006.624065,-6712.215186,-3716.087012,6806.379798
R5-12-47-1_node_137,7849.706118,-147.947919,-4005.637897,-6718.025826,0.000000,0.000000
R5-12-47-1_node_138,0.000000,0.000000,0.000000,0.000000,-3735.717394,6813.967916
R5-12-47-1_node_139,0.000000,0.000000,-4004.201501,-6731.189082,-3745.489048,6817.626664
R5-12-47-1_node_140,7862.896405,-130.347766,0.000000,0.000000,0.000000,0.000000
R5-12-47-1_node_141,0.000000,0.000000,-4003.340903,-6743.373869,0.000000,0.000000
R5-12-47-1_node_142,0.000000,0.000000,0.000000,0.000000,-3775.712367,6827.574292
R5-12-47-1_node_143,7880.023055,-108.907637,0.000000,0.000000,-3792.497349,6832.569888
R5-12-47-1_node_144,7862.839176,-130.394155,0.000000,0.000000,0.000000,0.000000
R5-12-47-1_node_145,7862.903584,-130.376787,-4004.057207,-6735.577599,-3752.463918,6819.884567
R5-12-47-1_node_146,0.000000,0.000000,-4007.539200,-6687.306185,0.000000,0.000000
R5-12-47-1_node_147,0.000000,0.000000,-4004.208298,-6731.159992,0.000000,0.000000
R5-12-47-1_node_148,0.000000,0.000000,-4003.367096,-6743.469412,0.000000,0.000000
R5-12-47-1_node_149,7868.465715,-122.869676,-4003.383829,-6743.531571,-3765.400670,6824.475100
R5-12-47-1_node_150,0.000000,0.000000,0.000000,0.000000,-3710.404168,6804.650921
R5-12-47-1_node_151,0.000000,0.000000,0.000000,0.000000,-3710.404515,6804.650599
R5-12-47-1_node_152,0.000000,0.000000,0.000000,0.000000,-3715.779790,6801.476411
R5-12-47-1_node_153,0.000000,0.000000,0.000000,0.000000,-3714.889186,6800.558838
R5-12-47-1_node_154,0.000000,0.000000,0.000000,0.000000,-3628.209707,6770.460155
R5-12-47-1_node_155,0.000000,0.000000,-4009.428171,-6694.178504,0.000000,0.000000
R5-12-47-1_node_156,7835.317113,-163.183946,-4009.405933,-6694.266837,-3696.119579,6800.241828
R5-12-47-1_node_157,0.000000,0.000000,-4009.420352,-6694.150611,0.000000,0.000000
R5-12-47-1_node_158,0.000000,0.000000,-4009.419324,-6694.150927,0.000000,0.000000
R5-12-47-1_node_159,0.000000,0.000000,-4008.650336,-6691.340619,0.000000,0.000000
R5-12-47-1_node_160,7856.752716,-139.388092,-4004.357700,-6726.163643,-3735.785059,6814.043233
R5-12-47-1_node_161,0.000000,0.000000,0.000000,0.000000,-3735.714101,6813.970996
R5-12-47-1_node_162,0.000000,0.000000,0.000000,0.000000,-3723.125901,6808.925030
R5-12-47-1_node_163,7860.457589,-133.807128,-4004.242744,-6731.239878,-3745.557861,6817.685942
R5-12-47-1_node_164,7862.931707,-130.338490,-4004.054084,-6735.619950,-3752.532428,6819.908240
R5-12-47-1_node_165,7873.221848,-117.366590,-4002.344967,-6751.659753,-3775.736330,6827.598275
R5-12-47-1_node_166,7880.129527,-108.884185,-4001.121116,-6764.019994,-3792.477231,6832.594229
R5-12-47-1_node_167,7755.521336,-233.140551,0.000000,0.000000,-3604.335225,6754.467786
R5-12-47-1_node_168,7755.521336,-233.140551,0.000000,0.000000,-3604.335707,6754.467392
R5-12-47-1_node_169,0.000000,0.000000,-4009.431558,-6694.177479,0.000000,0.000000
R5-12-47-1_node_170,7782.781858,-215.884618,-4024.397659,-6630.182668,-3625.303012,6770.831697
R5-12-47-1_node_171,7717.629401,-256.582594,-4029.126763,-6567.969574,-3573.646214,6731.436785
R5-12-47-1_node_172,7731.729609,-247.941247,-4028.309135,-6581.455470,-3584.493195,6740.332441
R5-12-47-1_node_173,7927.392073,-51.698450,-3991.692404,-6839.090613,-3894.451562,6865.045823
R5-12-47-1_node_174,0.000000,0.000000,0.000000,0.000000,-3659.132004,6785.750520
R5-12-47-1_node_175,7823.439125,-175.675948,-4012.033395,-6679.005364,-3677.361544,6792.637313
R5-12-47-1_node_176,0.000000,0.000000,-4018.963077,-6647.032934,0.000000,0.000000
R5-12-47-1_node_177,0.000000,0.000000,-4020.454578,-6642.770196,0.000000,0.000000
R5-12-47-1_node_178,0.000000,0.000000,0.000000,0.000000,-3629.046048,6771.326919
R5-12-47-1_node_179,0.000000,0.000000,0.000000,0.000000,-3629.826795,6772.139045
R5-12-47-1_node_180,0.000000,0.000000,0.000000,0.000000,-3631.918526,6774.333273
R5-12-47-1_node_181,7789.823893,-210.095195,-4022.284665,-6637.609654,-3631.461581,6774.120003
R5-12-47-1_node_182,7716.685791,-257.152211,-4029.281039,-6566.596974,-3572.491485,6730.602312
R5-12-47-1_node_183,7697.024498,-258.854787,-4022.054117,-6553.920087,-3565.722663,6715.294359
R5-12-47-1_node_184,7742.996988,-240.804661,-4027.359240,-6593.205472,-3594.372382,6746.909983
R5-12-47-1_node_185,7720.356985,-254.397909,-4028.509171,-6570.943748,-3576.270495,6733.007726
R5-12-47-1_node_186,7700.198775,-258.346174,-4022.964066,-6555.950141,-3566.996926,6717.740092
R5-12-47-1_node_187,7709.573160,-257.494470,-4026.062697,-6561.971826,-3571.051346,6725.163549
R5-12-47-1_node_188,7709.774881,-257.280787,-4026.100014,-6561.916160,-3571.111148,6725.511488
R5-12-47-1_node_189,7710.073551,-257.265822,-4026.314286,-6562.500531,-3571.145027,6725.695911
R5-12-47-1_node_190,0.000000,0.000000,-4025.292735,-6620.511479,0.000000,0.000000
R5-12-47-1_node_191,0.000000,0.000000,-3995.390358,-6808.128307,0.000000,0.000000
R5-12-47-1_node_192,0.000000,0.000000,-3995.066688,-6806.882280,0.000000,0.000000
R5-12-47-1_node_193,0.000000,0.000000,-3994.813839,-6805.922263,0.000000,0.000000
R5-12-47-1_node_194,0.000000,0.000000,-3994.647936,-6805.293415,0.000000,0.000000
R5-12-47-1_node_195,0.000000,0.000000,0.000000,0.000000,-3834.254293,6846.523456
R5-12-47-1_node_196,0.000000,0.000000,-3996.751547,-6794.032050,0.000000,0.000000
R5-12-47-1_node_197,0.000000,0.000000,-3997.294052,-6790.217843,0.000000,0.000000
R5-12-47-1_node_198,7857.351665,-131.893023,0.000000,0.000000,0.000000,0.000000
R5-12-47-1_node_199,7870.703449,-111.269968,0.000000,0.000000,0.000000,0.000000
R5-12-47-1_node_200,7872.608182,-110.764567,0.000000,0.000000,0.000000,0.000000
...
R5-12-47-1_meter_1,258.595327,-18.954292,-144.048211,-215.116143,-110.690231,230.567896
R5-12-47-1_meter_2,253.338608,-19.187788,-139.842328,-227.851048,-121.453751,228.973381
R5-12-47-1_meter_3,0.000000,0.000000,0.000000,0.000000,-58.735654,103.390588
R5-12-47-1_meter_4,114.114930,-4.741885,-60.398765,-96.660467,-52.014368,99.964694
R5-12-47-1_meter_5,262.515391,-13.088765,-140.837454,-221.224264,-117.648498,231.025259
R5-12-47-1_meter_6,263.750641,-11.076782,-139.858051,-223.174101,-119.202734,231.571114
R5-12-47-1_meter_7,117.923883,-2.648628,-60.474567,-100.673366,-54.871037,101.757699
R5-12-47-1_meter_8,260.884291,-15.210360,-141.880319,-218.744800,-114.954403,230.651066
R5-12-47-1_meter_9,263.078940,-12.702827,-140.780483,-221.906527,-118.272429,231.326573
R5-12-47-1_meter_10,112.947111,-4.381134,-60.724391,-99.043902,-53.903847,101.489089
R5-12-47-1_meter_11,262.025588,-11.852581,-140.690716,-224.207551,-117.244319,232.772268
R5-12-47-1_meter_12,262.393955,-12.945439,-140.648850,-221.174791,-117.691796,230.858105
R5-12-47-1_meter_13,115.539769,-3.597501,-60.559087,-94.317697,-54.046537,101.599086
R5-12-47-1_meter_14,0.000000,0.000000,0.000000,0.000000,-50.238651,96.963017
R5-12-47-1_meter_15,109.365171,-5.002232,-60.689033,-98.919962,-53.827031,101.375575
R5-12-47-1_meter_16,262.961309,-13.989187,-140.549840,-222.925920,-122.481010,230.866918
R5-12-47-1_meter_17,117.372589,-3.032085,-60.547899,-100.307970,-54.976127,102.205928
R5-12-47-1_meter_18,116.951998,-3.376871,0.000000,0.000000,-54.563769,101.985333
R5-12-47-1_meter_19,0.000000,0.000000,0.000000,0.000000,-52.638061,100.042872
R5-12-47-1_meter_20,115.903695,-3.656136,0.000000,0.000000,0.000000,0.000000
R5-12-47-1_meter_21,116.995395,-3.448334,-60.236975,-98.760095,-54.194769,101.779857
R5-12-47-1_meter_22,110.212946,-4.610149,-60.859789,-98.544288,-54.326357,101.806671
R5-12-47-1_meter_23,0.000000,0.000000,0.000000,0.000000,-50.135795,97.400588
R5-12-47-1_meter_24,0.000000,0.000000,0.000000,0.000000,-53.304123,100.475786
R5-12-47-1_meter_25,0.000000,0.000000,-58.899274,-93.940992,0.000000,0.000000
R5-12-47-1_meter_26,0.000000,0.000000,-58.415167,-92.357371,0.000000,0.000000
R5-12-47-1_meter_27,114.432952,-4.128758,0.000000,0.000000,0.000000,0.000000
R5-12-47-1_meter_28,118.667036,-1.700229,0.000000,0.000000,-56.403676,102.068236
R5-12-47-1_meter_29,117.864175,-2.322822,-60.394343,-101.260873,0.000000,0.000000
R5-12-47-1_meter_30,117.556910,-3.025322,-60.547248,-100.307288,-54.214923,101.329452
R5-12-47-1_meter_31,0.000000,0.000000,0.000000,0.000000,-55.285811,101.751105
R5-12-47-1_meter_32,118.772967,-1.641153,-60.205009,-101.621537,-57.161976,102.984029
R5-12-47-1_meter_33,116.894814,-3.514003,0.000000,0.000000,-46.743935,95.618254
R5-12-47-1_meter_34,116.536214,-3.737085,-60.527270,-98.500373,-53.173119,100.716369
R5-12-47-1_meter_35,265.315841,-12.420649,-141.665886,-223.234590,-118.934951,233.440350
R5-12-47-1_meter_36,264.089606,-11.997936,-143.554174,-218.778105,-116.234735,227.413658
R5-12-47-1_meter_37,254.533182,-18.007439,-139.897535,-227.962438,-122.143956,230.183953
R5-12-47-1_meter_38,263.208626,-14.346398,-142.253720,-221.039570,-116.688016,232.303642
R5-12-47-1_meter_39,260.051145,-12.885443,-139.435646,-219.162969,-116.560866,228.765964
R5-12-47-1_meter_40,261.476495,-15.154149,-142.153813,-219.443870,-115.439997,231.184502
R5-12-47-1_meter_41,263.490357,-16.340281,-140.036963,-228.242498,-119.803852,226.056082
R5-12-47-1_meter_42,266.411484,-9.080221,-141.740891,-209.120950,-124.212562,233.930834
R5-12-47-1_meter_43,113.836511,-4.476160,-60.032430,-96.549238,-52.101834,99.588889
R5-12-47-1_meter_44,0.000000,0.000000,-60.262703,-101.382668,-55.256194,101.501780
R5-12-47-1_meter_45,117.947277,-2.311966,-60.374789,-101.255892,0.000000,0.000000
R5-12-47-1_meter_46,262.829320,-14.188813,-141.939637,-220.844933,-116.707641,231.883834
R5-12-47-1_meter_47,258.489447,-18.351009,-140.073533,-229.520146,-122.575444,231.197947
R5-12-47-1_meter_48,117.305642,-3.253625,-59.999804,-94.157350,-54.642453,102.052959
R5-12-47-1_meter_49,7969.959955,0.026014,-3984.954365,-6902.196220,-3985.004381,6902.156967
R5-12-47-1_load_1,258.595327,-18.954292,-144.048211,-215.116143,-110.690231,230.567896
R5-12-47-1_load_2,253.338608,-19.187788,-139.842328,-227.851048,-121.453751,228.973381
R5-12-47-1_load_3,0.000000,0.000000,0.000000,0.000000,-58.735654,103.390588
R5-12-47-1_load_4,114.114930,-4.741885,-60.398765,-96.660467,-52.014368,99.964694
R5-12-47-1_load_5,262.515391,-13.088765,-140.837454,-221.224264,-117.648498,231.025259
R5-12-47-1_load_6,263.750641,-11.076782,-139.858051,-223.174101,-119.202734,231.571114
R5-12-47-1_load_7,117.923883,-2.648628,-60.474567,-100.673366,-54.871037,101.757699
R5-12-47-1_load_8,260.884291,-15.210360,-141.880319,-218.744800,-114.954403,230.651066
R5-12-47-1_load_9,263.078940,-12.702827,-140.780483,-221.906527,-118.272429,231.326573
R5-12-47-1_load_10,112.947111,-4.381134,-60.724391,-99.043902,-53.903847,101.489089
R5-12-47-1_load_11,262.025588,-11.852581,-140.690716,-224.207551,-117.244319,232.772268
R5-12-47-1_load_12,262.393955,-12.945439,-140.648850,-221.174791,-117.691796,230.858105
R5-12-47-1_load_13,115.539769,-3.597501,-60.559087,-94.317697,-54.046537,101.599086
R5-12-47-1_load_14,0.000000,0.000000,0.000000,0.000000,-50.238651,96.963017
R5-12-47-1_load_15,109.365171,-5.002232,-60.689033,-98.919962,-53.827031,101.375575
R5-12-47-1_load_16,262.961309,-13.989187,-140.549840,-222.925920,-122.481010,230.866918
R5-12-47-1_load_17,117.372589,-3.032085,-60.547899,-100.307970,-54.976127,102.205928
R5-12-47-1_load_18,116.951998,-3.376871,0.000000,0.000000,-54.563769,101.985333
R5-12-47-1_load_19,0.000000,0.000000,0.000000,0.000000,-52.638061,100.042872
R5-12-47-1_load_20,115.903695,-3.656136,0.000000,0.000000,0.000000,0.000000
R5-12-47-1_load_21,116.995395,-3.448334,-60.236975,-98.760095,-54.194769,101.779857
R5-12-47-1_load_22,110.212946,-4.610149,-60.859789,-98.544288,-54.326357,101.806671
R5-12-47-1_load_23,0.000000,0.000000,0.000000,0.000000,-50.135795,97.400588
R5-12-47-1_load_24,0.000000,0.000000,0.000000,0.000000,-53.304123,100.475786
R5-12-47-1_load_25,0.000000,0.000000,-58.899274,-93.940992,0.000000,0.000000
R5-12-47-1_load_26,0.000000,0.000000,-58.415167,-92.357371,0.000000,0.000000
R5-12-47-1_load_27,114.432952,-4.128758,0.000000,0.000000,0.000000,0.000000
R5-12-47-1_load_28,118.667036,-1.700229,0.000000,0.000000,-56.403676,102.068236
R5-12-47-1_load_29,117.864175,-2.322822,-60.394343,-101.260873,0.000000,0.000000
R5-12-47-1_load_30,117.556910,-3.025322,-60.547248,-100.307288,-54.214923,101.329452
R5-12-47-1_load_31,0.000000,0.000000,0.000000,0.000000,-55.285811,101.751105
R5-12-47-1_load_32,118.772967,-1.641153,-60.205009,-101.621537,-57.161976,102.984029
R5-12-47-1_load_33,116.894814,-3.514003,0.000000,0.000000,-46.743935,95.618254
R5-12-47-1_load_34,116.536214,-3.737085,-60.527270,-98.500373,-53.173119,100.716369
R5-12-47-1_load_35,265.315841,-12.420649,-141.665886,-223.234590,-118.934951,233.440350
R5-12-47-1_load_36,264.089606,-11.997936,-143.554174,-218.778105,-116.234735,227.413658
R5-12-47-1_load_37,254.533182,-18.007439,-139.897535,-227.962438,-122.143956,230.183953
R5-12-47-1_load_38,263.208626,-14.346398,-142.253720,-221.039570,-116.688016,232.303642
R5-12-47-1_load_39,260.051145,-12.885443,-139.435646,-219.162969,-116.560866,228.765964
R5-12-47-1_load_40,261.476495,-15.154149,-142.153813,-219.443870,-115.439997,231.184502
R5-12-47-1_load_41,263.490357,-16.340281,-140.036963,-228.242498,-119.803852,226.056082
R5-12-47-1_load_42,266.411484,-9.080221,-141.740891,-209.120950,-124.212562,233.930834
R5-12-47-1_load_43,113.836511,-4.476160,-60.032430,-96.549238,-52.101834,99.588889
R5-12-47-1_load_44,0.000000,0.000000,-60.262703,-101.382668,-55.256194,101.501780
R5-12-47-1_load_45,117.947277,-2.311966,-60.374789,-101.255892,0.000000,0.000000
R5-12-47-1_load_46,262.829320,-14.188813,-141.939637,-220.844933,-116.707641,231.883834
R5-12-47-1_load_47,258.489447,-18.351009,-140.073533,-229.520146,-122.575444,231.197947
R5-12-47-1_load_48,117.305642,-3.253625,-59.999804,-94.157350,-54.642453,102.052959
R5-12-47-1_tn_1,-54.504583,101.193985,-54.504583,101.193985,0.000000,0.000000
R5-12-47-1_tn_2,-57.679347,102.078278,-57.679347,102.078278,0.000000,0.000000
R5-12-47-1_tn_3,-60.268366,-99.519266,-60.268366,-99.519266,0.000000,0.000000
R5-12-47-1_tn_4,-60.254945,-99.026901,-60.254945,-99.026901,0.000000,0.000000
R5-12-47-1_tn_5,-55.310936,101.194907,-55.310936,101.194907,0.000000,0.000000
R5-12-47-1_tn_6,-53.932313,101.170961,-53.932313,101.170961,0.000000,0.000000
R5-12-47-1_tn_7,117.732362,-0.899805,117.732362,-0.899805,0.000000,0.000000
R5-12-47-1_tn_8,-59.419223,-101.519420,-59.419223,-101.519420,0.000000,0.000000
R5-12-47-1_tn_9,-57.557577,102.486973,-57.557577,102.486973,0.000000,0.000000
R5-12-47-1_tn_10,-59.805999,-101.242225,-59.805999,-101.242225,0.000000,0.000000
R5-12-47-1_tn_11,117.880767,-0.719555,117.880767,-0.719555,0.000000,0.000000
R5-12-47-1_tn_12,-59.397066,-101.782260,-59.397066,-101.782260,0.000000,0.000000
R5-12-47-1_tn_13,-57.264919,102.466943,-57.264919,102.466943,0.000000,0.000000
R5-12-47-1_tn_14,-57.366870,102.126431,-57.366870,102.126431,0.000000,0.000000
R5-12-47-1_tn_15,-56.040379,101.781277,-56.040379,101.781277,0.000000,0.000000
R5-12-47-1_tn_16,118.087902,-0.467357,118.087902,-0.467357,0.000000,0.000000
R5-12-47-1_tn_17,-59.366890,-102.162882,-59.366890,-102.162882,0.000000,0.000000
R5-12-47-1_tn_18,-58.413159,102.748800,-58.413159,102.748800,0.000000,0.000000
R5-12-47-1_tn_19,115.560214,-3.329074,115.560214,-3.329074,0.000000,0.000000
R5-12-47-1_tn_20,-60.639716,-97.463937,-60.639716,-97.463937,0.000000,0.000000
R5-12-47-1_tn_21,-53.659017,100.566959,-53.659017,100.566959,0.000000,0.000000
R5-12-47-1_tn_22,-60.995444,-98.055691,-60.995444,-98.055691,0.000000,0.000000
R5-12-47-1_tn_23,115.716514,-3.191133,115.716514,-3.191133,0.000000,0.000000
R5-12-47-1_tn_24,-59.804442,-98.525971,-59.804442,-98.525971,0.000000,0.000000
R5-12-47-1_tn_25,-53.144557,100.820043,-53.144557,100.820043,0.000000,0.000000
R5-12-47-1_tn_26,116.080735,-2.823370,116.080735,-2.823370,0.000000,0.000000
R5-12-47-1_tn_27,-59.710563,-98.979554,-59.710563,-98.979554,0.000000,0.000000
R5-12-47-1_tn_28,-54.185487,100.928959,-54.185487,100.928959,0.000000,0.000000
R5-12-47-1_tn_29,-53.345391,100.781757,-53.345391,100.781757,0.000000,0.000000
R5-12-47-1_tn_30,115.412047,-3.971606,115.412047,-3.971606,0.000000,0.000000
R5-12-47-1_tn_31,-59.849772,-98.358330,-59.849772,-98.358330,0.000000,0.000000
R5-12-47-1_tn_32,-53.665730,100.565619,-53.665730,100.565619,0.000000,0.000000
R5-12-47-1_tn_33,115.477055,-3.406704,115.477055,-3.406704,0.000000,0.000000
R5-12-47-1_tn_34,-59.887090,-97.996689,-59.887090,-97.996689,0.000000,0.000000
R5-12-47-1_tn_35,-53.582253,100.524113,-53.582253,100.524113,0.000000,0.000000
R5-12-47-1_tn_36,115.830700,-3.525664,115.830700,-3.525664,0.000000,0.000000
R5-12-47-1_tn_37,113.811402,-4.159887,113.811402,-4.159887,0.000000,0.000000
R5-12-47-1_tn_38,-59.902432,-97.216065,-59.902432,-97.216065,0.000000,0.000000
R5-12-47-1_tn_39,-52.747418,99.819167,-52.747418,99.819167,0.000000,0.000000
R5-12-47-1_tn_40,-60.238936,-99.411450,-60.238936,-99.411450,0.000000,0.000000
R5-12-47-1_tn_41,-55.211585,101.344079,-55.211585,101.344079,0.000000,0.000000
R5-12-47-1_tn_42,116.851613,-2.356470,116.851613,-2.356470,0.000000,0.000000
R5-12-47-1_tn_43,116.167128,-3.571328,116.167128,-3.571328,0.000000,0.000000
R5-12-47-1_tn_44,-59.778967,-98.612392,-59.778967,-98.612392,0.000000,0.000000
R5-12-47-1_tn_45,-53.899026,100.669101,-53.899026,100.669101,0.000000,0.000000
R5-12-47-1_tn_46,115.486597,-4.587763,115.486597,-4.587763,0.000000,0.000000
R5-12-47-1_tn_47,-53.112123,100.299188,-53.112123,100.299188,0.000000,0.000000
R5-12-47-1_tn_48,-52.580973,100.881133,-52.580973,100.881133,0.000000,0.000000
R5-12-47-1_tn_49,115.222329,-4.495576,115.222329,-4.495576,0.000000,0.000000
R5-12-47-1_tn_50,114.758587,-4.236702,114.758587,-4.236702,0.000000,0.000000
R5-12-47-1_tn_51,-60.812593,-97.650924,-60.812593,-97.650924,0.000000,0.000000
R5-12-47-1_tn_52,-53.248792,100.259198,-53.248792,100.259198,0.000000,0.000000
R5-12-47-1_tn_53,-52.638900,100.301620,-52.638900,100.301620,0.000000,0.000000
R5-12-47-1_tn_54,-60.655434,-97.037084,-60.655434,-97.037084,0.000000,0.000000
R5-12-47-1_tn_55,-60.428395,-98.037755,-60.428395,-98.037755,0.000000,0.000000
R5-12-47-1_tn_56,115.408199,-3.835440,115.408199,-3.835440,0.000000,0.000000
R5-12-47-1_tn_57,117.255067,-1.461508,117.255067,-1.461508,0.000000,0.000000
R5-12-47-1_tn_58,-59.502287,-100.723305,-59.502287,-100.723305,0.000000,0.000000
R5-12-47-1_tn_59,-56.445093,101.673260,-56.445093,101.673260,0.000000,0.000000
R5-12-47-1_tn_60,117.389728,-1.298302,117.389728,-1.298302,0.000000,0.000000
R5-12-47-1_tn_61,-59.480955,-100.933536,-59.480955,-100.933536,0.000000,0.000000
R5-12-47-1_tn_62,-56.123166,102.233206,-56.123166,102.233206,0.000000,0.000000
R5-12-47-1_tn_63,-59.923823,-100.690677,-59.923823,-100.690677,0.000000,0.000000
R5-12-47-1_tn_64,-59.847447,-99.594031,-59.847447,-99.594031,0.000000,0.000000
R5-12-47-1_tn_65,116.514156,-2.760417,116.514156,-2.760417,0.000000,0.000000
R5-12-47-1_tn_66,-59.968380,-99.279625,-59.968380,-99.279625,0.000000,0.000000
R5-12-47-1_tn_67,-54.844284,101.479053,-54.844284,101.479053,0.000000,0.000000
R5-12-47-1_tn_68,-54.204771,100.788099,-54.204771,100.788099,0.000000,0.000000
R5-12-47-1_tn_69,-54.148096,100.911098,-54.148096,100.911098,0.000000,0.000000
R5-12-47-1_tn_70,117.485919,-2.287916,117.485919,-2.287916,0.000000,0.000000
R5-12-47-1_tn_71,-55.531076,101.308731,-55.531076,101.308731,0.000000,0.000000
R5-12-47-1_tn_72,116.256871,-2.420732,116.256871,-2.420732,0.000000,0.000000
R5-12-47-1_tn_73,116.166243,-3.021574,116.166243,-3.021574,0.000000,0.000000
R5-12-47-1_tn_74,-60.314141,-100.685796,-60.314141,-100.685796,0.000000,0.000000
R5-12-47-1_tn_75,116.251108,-3.615298,116.251108,-3.615298,0.000000,0.000000
R5-12-47-1_tn_76,-53.928656,100.971910,-53.928656,100.971910,0.000000,0.000000
R5-12-47-1_tn_77,-52.648844,100.755299,-52.648844,100.755299,0.000000,0.000000
R5-12-47-1_tn_78,116.371670,-3.598116,116.371670,-3.598116,0.000000,0.000000
R5-12-47-1_tn_79,-59.778314,-98.611698,-59.778314,-98.611698,0.000000,0.000000
R5-12-47-1_tn_80,-53.734651,100.955185,-53.734651,100.955185,0.000000,0.000000
R5-12-47-1_tn_81,-54.520392,101.127830,-54.520392,101.127830,0.000000,0.000000
R5-12-47-1_tn_82,-60.333330,-98.589785,-60.333330,-98.589785,0.000000,0.000000
R5-12-47-1_tn_83,-54.458626,101.347884,-54.458626,101.347884,0.000000,0.000000
R5-12-47-1_tn_84,-54.697945,101.426218,-54.697945,101.426218,0.000000,0.000000
R5-12-47-1_tn_85,-53.889005,101.184953,-53.889005,101.184953,0.000000,0.000000
R5-12-47-1_tn_86,-53.111477,100.730064,-53.111477,100.730064,0.000000,0.000000
R5-12-47-1_tn_87,116.657131,-3.335226,116.657131,-3.335226,0.000000,0.000000
R5-12-47-1_tn_88,-59.670627,-99.206405,-59.670627,-99.206405,0.000000,0.000000
R5-12-47-1_tn_89,-53.974228,100.817400,-53.974228,100.817400,0.000000,0.000000
R5-12-47-1_tn_90,-60.627402,-98.197114,-60.627402,-98.197114,0.000000,0.000000
R5-12-47-1_tn_91,-59.911052,-98.726240,-59.911052,-98.726240,0.000000,0.000000
R5-12-47-1_tn_92,116.942028,-1.830043,116.942028,-1.830043,0.000000,0.000000
R5-12-47-1_tn_93,-59.556793,-99.662014,-59.556793,-99.662014,0.000000,0.000000
R5-12-47-1_tn_94,-56.079273,101.479477,-56.079273,101.479477,0.000000,0.000000
R5-12-47-1_tn_95,114.673667,-3.896742,114.673667,-3.896742,0.000000,0.000000
R5-12-47-1_tn_96,-60.089655,-97.886885,-60.089655,-97.886885,0.000000,0.000000
R5-12-47-1_tn_97,-52.690581,99.654904,-52.690581,99.654904,0.000000,0.000000
R5-12-47-1_tn_98,117.664675,-0.979917,117.664675,-0.979917,0.000000,0.000000
R5-12-47-1_tn_99,-59.430567,-101.401955,-59.430567,-101.401955,0.000000,0.000000
R5-12-47-1_tn_100,-56.651535,102.381076,-56.651535,102.381076,0.000000,0.000000
R5-12-47-1_tn_101,-52.916625,100.878663,-52.916625,100.878663,0.000000,0.000000
R5-12-47-1_tn_102,-60.368187,-98.198489,-60.368187,-98.198489,0.000000,0.000000
R5-12-47-1_tn_103,-60.355677,-97.951992,-60.355677,-97.951992,0.000000,0.000000
R5-12-47-1_tn_104,-52.886950,100.898384,-52.886950,100.898384,0.000000,0.000000
R5-12-47-1_tn_105,-52.867673,101.123718,-52.867673,101.123718,0.000000,0.000000
R5-12-47-1_tn_106,-53.194778,100.862300,-53.194778,100.862300,0.000000,0.000000
R5-12-47-1_tn_107,115.829627,-3.784402,115.829627,-3.784402,0.000000,0.000000
R5-12-47-1_tn_108,-59.852992,-98.348593,-59.852992,-98.348593,0.000000,0.000000
R5-12-47-1_tn_109,-53.658410,100.562145,-53.658410,100.562145,0.000000,0.000000
R5-12-47-1_tn_110,115.017663,-4.002246,115.017663,-4.002246,0.000000,0.000000
R5-12-47-1_tn_111,-59.834703,-97.078010,-59.834703,-97.078010,0.000000,0.000000
R5-12-47-1_tn_112,-53.676917,100.837996,-53.676917,100.837996,0.000000,0.000000
R5-12-47-1_tn_113,114.456142,-4.279784,114.456142,-4.279784,0.000000,0.000000
R5-12-47-1_tn_114,-60.168642,-97.186797,-60.168642,-97.186797,0.000000,0.000000
R5-12-47-1_tn_115,-52.588987,100.038410,-52.588987,100.038410,0.000000,0.000000
R5-12-47-1_tn_116,-60.477129,-98.041520,-60.477129,-98.041520,0.000000,0.000000
R5-12-47-1_tn_117,-59.920441,-100.645803,-59.920441,-100.645803,0.000000,0.000000
R5-12-47-1_tn_118,-59.711283,-100.248308,-59.711283,-100.248308,0.000000,0.000000
R5-12-47-1_tn_119,-59.931838,-100.765766,-59.931838,-100.765766,0.000000,0.000000
R5-12-47-1_tn_120,-59.881159,-100.342668,-59.881159,-100.342668,0.000000,0.000000
R5-12-47-1_tn_121,-55.623799,101.880881,-55.623799,101.880881,0.000000,0.000000
R5-12-47-1_tn_122,-59.924692,-100.267056,-59.924692,-100.267056,0.000000,0.000000
R5-12-47-1_tn_123,-59.707541,-100.005706,-59.707541,-100.005706,0.000000,0.000000
R5-12-47-1_tn_124,116.349131,-2.790455,116.349131,-2.790455,0.000000,0.000000
R5-12-47-1_tn_125,116.267738,-2.965168,116.267738,-2.965168,0.000000,0.000000
R5-12-47-1_tn_126,116.589009,-2.501291,116.589009,-2.501291,0.000000,0.000000
R5-12-47-1_tn_127,117.113507,-2.259761,117.113507,-2.259761,0.000000,0.000000
R5-12-47-1_tn_128,116.642492,-2.465872,116.642492,-2.465872,0.000000,0.000000
R5-12-47-1_tn_129,-56.085631,101.471535,-56.085631,101.471535,0.000000,0.000000
R5-12-47-1_tn_130,116.884186,-2.197963,116.884186,-2.197963,0.000000,0.000000
R5-12-47-1_tn_131,-56.079573,101.479108,-56.079573,101.479108,0.000000,0.000000
R5-12-47-1_tn_132,-55.352504,101.411242,-55.352504,101.411242,0.000000,0.000000
R5-12-47-1_tn_133,-55.199448,101.513579,-55.199448,101.513579,0.000000,0.000000
R5-12-47-1_tn_134,-55.407317,101.284930,-55.407317,101.284930,0.000000,0.000000
R5-12-47-1_tn_135,-55.444906,101.708687,-55.444906,101.708687,0.000000,0.000000
R5-12-47-1_tn_136,-60.046869,-99.929314,-60.046869,-99.929314,0.000000,0.000000
R5-12-47-1_tn_137,-60.541970,-98.593791,-60.541970,-98.593791,0.000000,0.000000
R5-12-47-1_tn_138,-59.990694,-99.343861,-59.990694,-99.343861,0.000000,0.000000
R5-12-47-1_tn_139,-59.806269,-99.382985,-59.806269,-99.382985,0.000000,0.000000
R5-12-47-1_tn_140,-59.558991,-99.726997,-59.558991,-99.726997,0.000000,0.000000
R5-12-47-1_tn_141,-54.379440,101.446676,-54.379440,101.446676,0.000000,0.000000
R5-12-47-1_tn_142,-59.569622,-99.741829,-59.569622,-99.741829,0.000000,0.000000
R5-12-47-1_tn_143,-54.786972,101.386110,-54.786972,101.386110,0.000000,0.000000
R5-12-47-1_tn_144,116.841729,-2.595053,116.841729,-2.595053,0.000000,0.000000
R5-12-47-1_tn_145,-58.742894,-100.336570,-58.742894,-100.336570,0.000000,0.000000
R5-12-47-1_tn_146,-55.017864,101.625445,-55.017864,101.625445,0.000000,0.000000
R5-12-47-1_tn_147,-60.032917,-99.415193,-60.032917,-99.415193,0.000000,0.000000
R5-12-47-1_tn_148,-55.369169,101.240311,-55.369169,101.240311,0.000000,0.000000
R5-12-47-1_tn_149,-54.448664,101.152706,-54.448664,101.152706,0.000000,0.000000
R5-12-47-1_tn_150,-54.249299,101.382913,-54.249299,101.382913,0.000000,0.000000
R5-12-47-1_tn_151,-54.822805,101.016170,-54.822805,101.016170,0.000000,0.000000
R5-12-47-1_tn_152,-54.754444,101.415848,-54.754444,101.415848,0.000000,0.000000
R5-12-47-1_tn_153,116.103757,-3.056902,116.103757,-3.056902,0.000000,0.000000
R5-12-47-1_tn_154,116.623503,-2.706502,116.623503,-2.706502,0.000000,0.000000
R5-12-47-1_tn_155,116.015048,-3.798132,116.015048,-3.798132,0.000000,0.000000
R5-12-47-1_tn_156,-60.278292,-100.861993,-60.278292,-100.861993,0.000000,0.000000
R5-12-47-1_tn_157,116.249160,-2.879643,116.249160,-2.879643,0.000000,0.000000
R5-12-47-1_tn_158,116.381667,-2.996457,116.381667,-2.996457,0.000000,0.000000
R5-12-47-1_tn_159,116.473073,-2.968351,116.473073,-2.968351,0.000000,0.000000
R5-12-47-1_tn_160,116.050621,-3.779369,116.050621,-3.779369,0.000000,0.000000
R5-12-47-1_tn_161,-53.522063,101.088603,-53.522063,101.088603,0.000000,0.000000
R5-12-47-1_tn_162,-53.888907,101.292676,-53.888907,101.292676,0.000000,0.000000
R5-12-47-1_tn_163,-53.831050,101.283741,-53.831050,101.283741,0.000000,0.000000
R5-12-47-1_tn_164,-53.366050,100.923747,-53.366050,100.923747,0.000000,0.000000
R5-12-47-1_tn_165,-60.044591,-99.755644,-60.044591,-99.755644,0.000000,0.000000
R5-12-47-1_tn_166,116.896292,-2.576187,116.896292,-2.576187,0.000000,0.000000
R5-12-47-1_tn_167,116.248766,-2.633091,116.248766,-2.633091,0.000000,0.000000
R5-12-47-1_tn_168,116.191850,-2.647678,116.191850,-2.647678,0.000000,0.000000
R5-12-47-1_tn_169,-60.085809,-99.822023,-60.085809,-99.822023,0.000000,0.000000
R5-12-47-1_tn_170,-59.617936,-99.269228,-59.617936,-99.269228,0.000000,0.000000
R5-12-47-1_tn_171,-60.061995,-99.715704,-60.061995,-99.715704,0.000000,0.000000
R5-12-47-1_tn_172,-59.994719,-99.367423,-59.994719,-99.367423,0.000000,0.000000
R5-12-47-1_tn_173,-60.001029,-99.493428,-60.001029,-99.493428,0.000000,0.000000
R5-12-47-1_tn_174,-54.818086,101.467810,-54.818086,101.467810,0.000000,0.000000
R5-12-47-1_tn_175,-54.822930,101.466039,-54.822930,101.466039,0.000000,0.000000
R5-12-47-1_tn_176,-54.822957,101.549218,-54.822957,101.549218,0.000000,0.000000
R5-12-47-1_tn_177,-54.711406,101.443711,-54.711406,101.443711,0.000000,0.000000
R5-12-47-1_tn_178,-59.868890,-98.580606,-59.868890,-98.580606,0.000000,0.000000
R5-12-47-1_tn_179,-54.074971,101.539700,-54.074971,101.539700,0.000000,0.000000
R5-12-47-1_tn_180,-60.575494,-98.604773,-60.575494,-98.604773,0.000000,0.000000
R5-12-47-1_tn_181,-54.393284,101.354801,-54.393284,101.354801,0.000000,0.000000
R5-12-47-1_tn_182,-60.141456,-99.164683,-60.141456,-99.164683,0.000000,0.000000
R5-12-47-1_tn_183,115.453754,-3.419837,115.453754,-3.419837,0.000000,0.000000
R5-12-47-1_tn_184,-60.306364,-98.014161,-60.306364,-98.014161,0.000000,0.000000
R5-12-47-1_tn_185,-53.565823,100.510946,-53.565823,100.510946,0.000000,0.000000
R5-12-47-1_tn_186,-54.300032,100.514525,-54.300032,100.514525,0.000000,0.000000
R5-12-47-1_tn_187,-57.644817,101.970854,-57.644817,101.970854,0.000000,0.000000
R5-12-47-1_tn_188,-59.742602,-98.949655,-59.742602,-98.949655,0.000000,0.000000
R5-12-47-1_tn_189,-59.652958,-98.370389,-59.652958,-98.370389,0.000000,0.000000
R5-12-47-1_tn_190,-55.300414,101.164421,-55.300414,101.164421,0.000000,0.000000
R5-12-47-1_tn_191,-53.648731,100.231234,-53.648731,100.231234,0.000000,0.000000
R5-12-47-1_tn_192,117.701259,-0.894289,117.701259,-0.894289,0.000000,0.000000
R5-12-47-1_tn_193,-59.398917,-101.495185,-59.398917,-101.495185,0.000000,0.000000
R5-12-47-1_tn_194,-57.388756,101.974541,-57.388756,101.974541,0.000000,0.000000
R5-12-47-1_tn_195,-59.305698,-100.688996,-59.305698,-100.688996,0.000000,0.000000
R5-12-47-1_tn_196,117.849693,-0.714094,117.849693,-0.714094,0.000000,0.000000
R5-12-47-1_tn_197,-59.376829,-101.758043,-59.376829,-101.758043,0.000000,0.000000
R5-12-47-1_tn_198,-57.000508,101.659153,-57.000508,101.659153,0.000000,0.000000
R5-12-47-1_tn_199,-57.268691,101.820394,-57.268691,101.820394,0.000000,0.000000
R5-12-47-1_tn_200,-55.819078,101.071777,-55.819078,101.071777,0.000000,0.000000
...
R5-12-47-1_tm_1,-54.300032,100.514525,-54.300032,100.514525,0.000000,0.000000
R5-12-47-1_tm_2,-57.644817,101.970854,-57.644817,101.970854,0.000000,0.000000
R5-12-47-1_tm_3,-59.742602,-98.949655,-59.742602,-98.949655,0.000000,0.000000
R5-12-47-1_tm_4,-59.652958,-98.370389,-59.652958,-98.370389,0.000000,0.000000
R5-12-47-1_tm_5,-55.300414,101.164421,-55.300414,101.164421,0.000000,0.000000
R5-12-47-1_tm_6,-53.648731,100.231234,-53.648731,100.231234,0.000000,0.000000
R5-12-47-1_tm_7,117.701259,-0.894289,117.701259,-0.894289,0.000000,0.000000
R5-12-47-1_tm_8,-59.398917,-101.495185,-59.398917,-101.495185,0.000000,0.000000
R5-12-47-1_tm_9,-57.388756,101.974541,-57.388756,101.974541,0.000000,0.000000
R5-12-47-1_tm_10,-59.305698,-100.688996,-59.305698,-100.688996,0.000000,0.000000
R5-12-47-1_tm_11,117.849693,-0.714094,117.849693,-0.714094,0.000000,0.000000
R5-12-47-1_tm_12,-59.376829,-101.758043,-59.376829,-101.758043,0.000000,0.000000
R5-12-47-1_tm_13,-57.000508,101.659153,-57.000508,101.659153,0.000000,0.000000
R5-12-47-1_tm_14,-57.268691,101.820394,-57.268691,101.820394,0.000000,0.000000
R5-12-47-1_tm_15,-55.819078,101.071777,-55.819078,101.071777,0.000000,0.000000
R5-12-47-1_tm_16,118.056871,-0.461972,118.056871,-0.461972,0.000000,0.000000
R5-12-47-1_tm_17,-59.346750,-102.138693,-59.346750,-102.138693,0.000000,0.000000
R5-12-47-1_tm_18,-58.236319,102.234300,-58.236319,102.234300,0.000000,0.000000
R5-12-47-1_tm_19,115.528663,-3.322788,115.528663,-3.322788,0.000000,0.000000
R5-12-47-1_tm_20,-60.003468,-96.731420,-60.003468,-96.731420,0.000000,0.000000
R5-12-47-1_tm_21,-53.648683,100.536010,-53.648683,100.536010,0.000000,0.000000
R5-12-47-1_tm_22,-60.903810,-97.759970,-60.903810,-97.759970,0.000000,0.000000
R5-12-47-1_tm_23,115.684997,-3.184894,115.684997,-3.184894,0.000000,0.000000
R5-12-47-1_tm_24,-59.783324,-98.501571,-59.783324,-98.501571,0.000000,0.000000
R5-12-47-1_tm_25,-52.907539,100.116179,-52.907539,100.116179,0.000000,0.000000
R5-12-47-1_tm_26,116.049294,-2.817252,116.049294,-2.817252,0.000000,0.000000
R5-12-47-1_tm_27,-59.689574,-98.955168,-59.689574,-98.955168,0.000000,0.000000
R5-12-47-1_tm_28,-54.128931,100.737262,-54.128931,100.737262,0.000000,0.000000
R5-12-47-1_tm_29,-53.125064,100.032627,-53.125064,100.032627,0.000000,0.000000
R5-12-47-1_tm_30,114.705972,-3.824858,114.705972,-3.824858,0.000000,0.000000
R5-12-47-1_tm_31,-59.828606,-98.333928,-59.828606,-98.333928,0.000000,0.000000
R5-12-47-1_tm_32,-53.655394,100.534671,-53.655394,100.534671,0.000000,0.000000
R5-12-47-1_tm_33,115.445486,-3.400391,115.445486,-3.400391,0.000000,0.000000
R5-12-47-1_tm_34,-59.798910,-97.902205,-59.798910,-97.902205,0.000000,0.000000
R5-12-47-1_tm_35,-53.571925,100.493139,-53.571925,100.493139,0.000000,0.000000
R5-12-47-1_tm_36,114.843811,-3.292889,114.843811,-3.292889,0.000000,0.000000
R5-12-47-1_tm_37,113.666470,-4.120594,113.666470,-4.120594,0.000000,0.000000
R5-12-47-1_tm_38,-59.880953,-97.191580,-59.880953,-97.191580,0.000000,0.000000
R5-12-47-1_tm_39,-52.737110,99.787878,-52.737110,99.787878,0.000000,0.000000
R5-12-47-1_tm_40,-59.711035,-98.840507,-59.711035,-98.840507,0.000000,0.000000
R5-12-47-1_tm_41,-55.100228,101.005192,-55.100228,101.005192,0.000000,0.000000
R5-12-47-1_tm_42,116.243540,-2.219793,116.243540,-2.219793,0.000000,0.000000
R5-12-47-1_tm_43,115.659471,-3.477462,115.659471,-3.477462,0.000000,0.000000
R5-12-47-1_tm_44,-59.757875,-98.587993,-59.757875,-98.587993,0.000000,0.000000
R5-12-47-1_tm_45,-53.888666,100.638222,-53.888666,100.638222,0.000000,0.000000
R5-12-47-1_tm_46,114.373141,-4.388855,114.373141,-4.388855,0.000000,0.000000
R5-12-47-1_tm_47,-53.065912,100.167087,-53.065912,100.167087,0.000000,0.000000
R5-12-47-1_tm_48,-52.291140,100.064756,-52.291140,100.064756,0.000000,0.000000
R5-12-47-1_tm_49,114.355593,-4.336934,114.355593,-4.336934,0.000000,0.000000
R5-12-47-1_tm_50,114.033818,-4.037676,114.033818,-4.037676,0.000000,0.000000
R5-12-47-1_tm_51,-60.780231,-97.536567,-60.780231,-97.536567,0.000000,0.000000
R5-12-47-1_tm_52,-53.238475,100.228103,-53.238475,100.228103,0.000000,0.000000
R5-12-47-1_tm_53,-52.509682,99.931345,-52.509682,99.931345,0.000000,0.000000
R5-12-47-1_tm_54,-59.974551,-96.279685,-59.974551,-96.279685,0.000000,0.000000
R5-12-47-1_tm_55,-60.047595,-97.603049,-60.047595,-97.603049,0.000000,0.000000
R5-12-47-1_tm_56,115.242438,-3.807085,115.242438,-3.807085,0.000000,0.000000
R5-12-47-1_tm_57,117.223865,-1.455820,117.223865,-1.455820,0.000000,0.000000
R5-12-47-1_tm_58,-59.481770,-100.699019,-59.481770,-100.699019,0.000000,0.000000
R5-12-47-1_tm_59,-56.381253,101.470185,-56.381253,101.470185,0.000000,0.000000
R5-12-47-1_tm_60,117.358554,-1.292664,117.358554,-1.292664,0.000000,0.000000
R5-12-47-1_tm_61,-59.460494,-100.909264,-59.460494,-100.909264,0.000000,0.000000
R5-12-47-1_tm_62,-55.826836,101.449843,-55.826836,101.449843,0.000000,0.000000
R5-12-47-1_tm_63,-59.655728,-100.396626,-59.655728,-100.396626,0.000000,0.000000
R5-12-47-1_tm_64,-59.628659,-99.356492,-59.628659,-99.356492,0.000000,0.000000
R5-12-47-1_tm_65,115.849697,-2.623312,115.849697,-2.623312,0.000000,0.000000
R5-12-47-1_tm_66,-59.508942,-98.781900,-59.508942,-98.781900,0.000000,0.000000
R5-12-47-1_tm_67,-54.672504,100.911699,-54.672504,100.911699,0.000000,0.000000
R5-12-47-1_tm_68,-54.091773,100.413709,-54.091773,100.413709,0.000000,0.000000
R5-12-47-1_tm_69,-54.016458,100.555022,-54.016458,100.555022,0.000000,0.000000
R5-12-47-1_tm_70,117.462739,-2.293786,117.462739,-2.293786,0.000000,0.000000
R5-12-47-1_tm_71,-55.434201,100.949620,-55.434201,100.949620,0.000000,0.000000
R5-12-47-1_tm_72,116.020091,-2.366932,116.020091,-2.366932,0.000000,0.000000
R5-12-47-1_tm_73,115.448455,-2.851303,115.448455,-2.851303,0.000000,0.000000
R5-12-47-1_tm_74,-60.312258,-100.677633,-60.312258,-100.677633,0.000000,0.000000
R5-12-47-1_tm_75,115.075785,-3.347397,115.075785,-3.347397,0.000000,0.000000
R5-12-47-1_tm_76,-53.707414,100.230995,-53.707414,100.230995,0.000000,0.000000
R5-12-47-1_tm_77,-52.354788,99.768084,-52.354788,99.768084,0.000000,0.000000
R5-12-47-1_tm_78,116.347982,-3.603877,116.347982,-3.603877,0.000000,0.000000
R5-12-47-1_tm_79,-59.757221,-98.587298,-59.757221,-98.587298,0.000000,0.000000
R5-12-47-1_tm_80,-53.659808,100.690597,-53.659808,100.690597,0.000000,0.000000
R5-12-47-1_tm_81,-54.424484,100.834341,-54.424484,100.834341,0.000000,0.000000
R5-12-47-1_tm_82,-59.770391,-97.986150,-59.770391,-97.986150,0.000000,0.000000
R5-12-47-1_tm_83,-54.278135,100.746798,-54.278135,100.746798,0.000000,0.000000
R5-12-47-1_tm_84,-54.537149,100.894300,-54.537149,100.894300,0.000000,0.000000
R5-12-47-1_tm_85,-53.622760,100.287885,-53.622760,100.287885,0.000000,0.000000
R5-12-47-1_tm_86,-52.920578,100.076467,-52.920578,100.076467,0.000000,0.000000
R5-12-47-1_tm_87,116.555954,-3.357095,116.555954,-3.357095,0.000000,0.000000
R5-12-47-1_tm_88,-59.649701,-99.182029,-59.649701,-99.182029,0.000000,0.000000
R5-12-47-1_tm_89,-53.872232,100.312926,-53.872232,100.312926,0.000000,0.000000
R5-12-47-1_tm_90,-59.652585,-97.157857,-59.652585,-97.157857,0.000000,0.000000
R5-12-47-1_tm_91,-59.675575,-98.471042,-59.675575,-98.471042,0.000000,0.000000
R5-12-47-1_tm_92,116.910762,-1.824240,116.910762,-1.824240,0.000000,0.000000
R5-12-47-1_tm_93,-59.384604,-99.473579,-59.384604,-99.473579,0.000000,0.000000
R5-12-47-1_tm_94,-56.068667,101.449203,-56.068667,101.449203,0.000000,0.000000
R5-12-47-1_tm_95,114.641911,-3.890244,114.641911,-3.890244,0.000000,0.000000
R5-12-47-1_tm_96,-60.053620,-97.844203,-60.053620,-97.844203,0.000000,0.000000
R5-12-47-1_tm_97,-52.659310,99.565310,-52.659310,99.565310,0.000000,0.000000
R5-12-47-1_tm_98,117.633557,-0.974377,117.633557,-0.974377,0.000000,0.000000
R5-12-47-1_tm_99,-59.410231,-101.377712,-59.410231,-101.377712,0.000000,0.000000
R5-12-47-1_tm_100,-56.340892,101.565713,-56.340892,101.565713,0.000000,0.000000
R5-12-47-1_tm_101,-52.634616,99.920993,-52.634616,99.920993,0.000000,0.000000
R5-12-47-1_tm_102,-59.947121,-97.686675,-59.947121,-97.686675,0.000000,0.000000
R5-12-47-1_tm_103,-60.055783,-97.597601,-60.055783,-97.597601,0.000000,0.000000
R5-12-47-1_tm_104,-52.662823,100.125171,-52.662823,100.125171,0.000000,0.000000
R5-12-47-1_tm_105,-52.570144,100.091619,-52.570144,100.091619,0.000000,0.000000
R5-12-47-1_tm_106,-52.996536,100.235737,-52.996536,100.235737,0.000000,0.000000
R5-12-47-1_tm_107,115.286870,-3.669545,115.286870,-3.669545,0.000000,0.000000
R5-12-47-1_tm_108,-59.831823,-98.324191,-59.831823,-98.324191,0.000000,0.000000
R5-12-47-1_tm_109,-53.648075,100.531195,-53.648075,100.531195,0.000000,0.000000
R5-12-47-1_tm_110,115.002029,-3.999845,115.002029,-3.999845,0.000000,0.000000
R5-12-47-1_tm_111,-59.813192,-97.053495,-59.813192,-97.053495,0.000000,0.000000
R5-12-47-1_tm_112,-53.678007,100.834198,-53.678007,100.834198,0.000000,0.000000
R5-12-47-1_tm_113,114.272493,-4.244882,114.272493,-4.244882,0.000000,0.000000
R5-12-47-1_tm_114,-60.047286,-97.044108,-60.047286,-97.044108,0.000000,0.000000
R5-12-47-1_tm_115,-52.526957,99.859398,-52.526957,99.859398,0.000000,0.000000
R5-12-47-1_tm_116,-60.110069,-97.596868,-60.110069,-97.596868,0.000000,0.000000
R5-12-47-1_tm_117,-59.477182,-100.159627,-59.477182,-100.159627,0.000000,0.000000
R5-12-47-1_tm_118,-59.457637,-99.960984,-59.457637,-99.960984,0.000000,0.000000
R5-12-47-1_tm_119,-59.526032,-100.319690,-59.526032,-100.319690,0.000000,0.000000
R5-12-47-1_tm_120,-59.558072,-99.989420,-59.558072,-99.989420,0.000000,0.000000
R5-12-47-1_tm_121,-55.338481,100.968049,-55.338481,100.968049,0.000000,0.000000
R5-12-47-1_tm_122,-59.616228,-99.929504,-59.616228,-99.929504,0.000000,0.000000
R5-12-47-1_tm_123,-59.449165,-99.722826,-59.449165,-99.722826,0.000000,0.000000
R5-12-47-1_tm_124,115.887787,-2.684177,115.887787,-2.684177,0.000000,0.000000
R5-12-47-1_tm_125,115.275072,-2.736637,115.275072,-2.736637,0.000000,0.000000
R5-12-47-1_tm_126,115.861807,-2.347139,115.861807,-2.347139,0.000000,0.000000
R5-12-47-1_tm_127,116.574685,-2.139367,116.574685,-2.139367,0.000000,0.000000
R5-12-47-1_tm_128,116.176532,-2.360222,116.176532,-2.360222,0.000000,0.000000
R5-12-47-1_tm_129,-56.075022,101.441261,-56.075022,101.441261,0.000000,0.000000
R5-12-47-1_tm_130,116.582327,-2.130303,116.582327,-2.130303,0.000000,0.000000
R5-12-47-1_tm_131,-56.068967,101.448835,-56.068967,101.448835,0.000000,0.000000
R5-12-47-1_tm_132,-55.255674,101.093607,-55.255674,101.093607,0.000000,0.000000
R5-12-47-1_tm_133,-55.066304,101.074934,-55.066304,101.074934,0.000000,0.000000
R5-12-47-1_tm_134,-55.333327,101.066175,-55.333327,101.066175,0.000000,0.000000
R5-12-47-1_tm_135,-55.262069,101.112815,-55.262069,101.112815,0.000000,0.000000
R5-12-47-1_tm_136,-59.696035,-99.546576,-59.696035,-99.546576,0.000000,0.000000
R5-12-47-1_tm_137,-59.477591,-97.453211,-59.477591,-97.453211,0.000000,0.000000
R5-12-47-1_tm_138,-59.661449,-98.986504,-59.661449,-98.986504,0.000000,0.000000
R5-12-47-1_tm_139,-59.556179,-99.111466,-59.556179,-99.111466,0.000000,0.000000
R5-12-47-1_tm_140,-59.538212,-99.702637,-59.538212,-99.702637,0.000000,0.000000
R5-12-47-1_tm_141,-54.123472,100.591292,-54.123472,100.591292,0.000000,0.000000
R5-12-47-1_tm_142,-59.548846,-99.717473,-59.548846,-99.717473,0.000000,0.000000
R5-12-47-1_tm_143,-54.585919,100.721105,-54.585919,100.721105,0.000000,0.000000
R5-12-47-1_tm_144,116.271303,-2.465267,116.271303,-2.465267,0.000000,0.000000
R5-12-47-1_tm_145,-58.710295,-100.327833,-58.710295,-100.327833,0.000000,0.000000
R5-12-47-1_tm_146,-54.831909,101.067436,-54.831909,101.067436,0.000000,0.000000
R5-12-47-1_tm_147,-59.570288,-98.912547,-59.570288,-98.912547,0.000000,0.000000
R5-12-47-1_tm_148,-55.358646,101.209847,-55.358646,101.209847,0.000000,0.000000
R5-12-47-1_tm_149,-54.236483,100.449766,-54.236483,100.449766,0.000000,0.000000
R5-12-47-1_tm_150,-53.998998,100.561205,-53.998998,100.561205,0.000000,0.000000
R5-12-47-1_tm_151,-54.757318,100.802185,-54.757318,100.802185,0.000000,0.000000
R5-12-47-1_tm_152,-54.567215,100.794981,-54.567215,100.794981,0.000000,0.000000
R5-12-47-1_tm_153,115.637423,-2.948000,115.637423,-2.948000,0.000000,0.000000
R5-12-47-1_tm_154,116.371304,-2.649459,116.371304,-2.649459,0.000000,0.000000
R5-12-47-1_tm_155,114.586108,-3.466969,114.586108,-3.466969,0.000000,0.000000
R5-12-47-1_tm_156,-60.277211,-100.857285,-60.277211,-100.857285,0.000000,0.000000
R5-12-47-1_tm_157,115.937908,-2.808369,115.937908,-2.808369,0.000000,0.000000
R5-12-47-1_tm_158,115.756360,-2.851409,115.756360,-2.851409,0.000000,0.000000
R5-12-47-1_tm_159,116.090218,-2.879730,116.090218,-2.879730,0.000000,0.000000
R5-12-47-1_tm_160,114.694242,-3.458150,114.694242,-3.458150,0.000000,0.000000
R5-12-47-1_tm_161,-53.238254,100.126097,-53.238254,100.126097,0.000000,0.000000
R5-12-47-1_tm_162,-53.655908,100.505033,-53.655908,100.505033,0.000000,0.000000
R5-12-47-1_tm_163,-53.583978,100.488780,-53.583978,100.488780,0.000000,0.000000
R5-12-47-1_tm_164,-53.158002,100.273137,-53.158002,100.273137,0.000000,0.000000
R5-12-47-1_tm_165,-59.619687,-99.292647,-59.619687,-99.292647,0.000000,0.000000
R5-12-47-1_tm_166,116.345917,-2.452210,116.345917,-2.452210,0.000000,0.000000
R5-12-47-1_tm_167,115.887113,-2.550367,115.887113,-2.550367,0.000000,0.000000
R5-12-47-1_tm_168,115.825752,-2.563559,115.825752,-2.563559,0.000000,0.000000
R5-12-47-1_tm_169,-59.721165,-99.425823,-59.721165,-99.425823,0.000000,0.000000
R5-12-47-1_tm_170,-59.459703,-99.097083,-59.459703,-99.097083,0.000000,0.000000
R5-12-47-1_tm_171,-59.690167,-99.306796,-59.690167,-99.306796,0.000000,0.000000
R5-12-47-1_tm_172,-59.545851,-98.880468,-59.545851,-98.880468,0.000000,0.000000
R5-12-47-1_tm_173,-59.590539,-99.047904,-59.590539,-99.047904,0.000000,0.000000
R5-12-47-1_tm_174,-54.637587,100.869453,-54.637587,100.869453,0.000000,0.000000
R5-12-47-1_tm_175,-54.646318,100.881809,-54.646318,100.881809,0.000000,0.000000
R5-12-47-1_tm_176,-54.664061,101.023426,-54.664061,101.023426,0.000000,0.000000
R5-12-47-1_tm_177,-54.551856,100.925176,-54.551856,100.925176,0.000000,0.000000
R5-12-47-1_tm_178,-59.619853,-98.312851,-59.619853,-98.312851,0.000000,0.000000
R5-12-47-1_tm_179,-53.756691,100.466626,-53.756691,100.466626,0.000000,0.000000
R5-12-47-1_tm_180,-59.787125,-97.749700,-59.787125,-97.749700,0.000000,0.000000
R5-12-47-1_tm_181,-54.220789,100.780033,-54.220789,100.780033,0.000000,0.000000
R5-12-47-1_tm_182,-59.761591,-98.754071,-59.761591,-98.754071,0.000000,0.000000
R5-12-47-1_tm_183,115.422180,-3.413519,115.422180,-3.413519,0.000000,0.000000
R5-12-47-1_tm_184,-59.858186,-97.551976,-59.858186,-97.551976,0.000000,0.000000
R5-12-47-1_tm_185,-53.555495,100.479967,-53.555495,100.479967,0.000000,0.000000
meter_test,7845.686196,-152.499094,-4006.624065,-6712.215186,-3716.087012,6806.379798
